14

O  -0.912542   4.497420   6.922188
O  0.104501   5.452566   8.676633
O  -0.455125   7.581595   5.890702
N  -1.423641   7.599484   8.731193
C  -0.761624   5.421454   7.770624
C  -1.765117   7.205278   6.295504
C  -1.752416   6.587568   7.688048
H  -2.084908   6.465682   5.595757
H  -2.479070   8.070475   6.193557
H  -2.733395   6.129931   7.905201
H  -1.486229   7.017745   9.644849
H  -0.471000   7.977072   8.610410
H  -2.279034   8.380044   8.721823
H  -0.341887   8.520595   6.139143
14

O  -0.912474   4.496335   6.921628
O  0.105391   5.452187   8.676349
O  -0.455362   7.582219   5.890421
N  -1.423490   7.600061   8.731951
C  -0.761237   5.420927   7.770556
C  -1.765382   7.205816   6.295816
C  -1.752735   6.587731   7.687996
H  -2.143107   6.465669   5.595726
H  -2.445664   8.059036   6.257653
H  -2.730291   6.192892   7.908885
H  -1.444212   7.160258   9.664980
H  -0.497170   8.078343   8.583322
H  -2.152293   8.312964   8.744864
H  -0.305764   8.486394   6.141874
14

O  -0.912318   4.496403   6.921702
O  0.105334   5.452174   8.676263
O  -0.455446   7.582093   5.890388
N  -1.423521   7.600100   8.731924
C  -0.761279   5.420993   7.770586
C  -1.765338   7.205776   6.295806
C  -1.752609   6.587762   7.688080
H  -2.132687   6.458611   5.595156
H  -2.449002   8.066250   6.262412
H  -2.742141   6.194574   7.909865
H  -1.432416   7.117440   9.657045
H  -0.497470   8.066920   8.588341
H  -2.153639   8.314130   8.764401
H  -0.309804   8.488649   6.143558
14

O  -0.912370   4.496458   6.921714
O  0.105353   5.452189   8.676273
O  -0.455377   7.582066   5.890390
N  -1.423521   7.600052   8.732122
C  -0.761278   5.420969   7.770571
C  -1.765355   7.205773   6.295784
C  -1.752709   6.587691   7.688054
H  -2.138756   6.462110   5.596174
H  -2.448415   8.062140   6.260863
H  -2.744690   6.193882   7.909503
H  -1.443918   7.128646   9.641268
H  -0.487622   8.061343   8.582692
H  -2.152153   8.317071   8.752173
H  -0.307194   8.487069   6.146750
14

O  -0.912314   4.496431   6.921727
O  0.105345   5.452207   8.676279
O  -0.455430   7.582119   5.890404
N  -1.423508   7.600110   8.731897
C  -0.761292   5.420995   7.770592
C  -1.765344   7.205759   6.295810
C  -1.752646   6.587763   7.688075
H  -2.135109   6.460300   5.596066
H  -2.448505   8.062899   6.262551
H  -2.741533   6.197831   7.907646
H  -1.428065   7.119084   9.659863
H  -0.499789   8.068362   8.587446
H  -2.152475   8.312716   8.759282
H  -0.308536   8.487954   6.145482
14

O  -0.912320   4.496428   6.921728
O  0.105346   5.452208   8.676290
O  -0.455413   7.582103   5.890389
N  -1.423516   7.600095   8.731918
C  -0.761287   5.420993   7.770593
C  -1.765337   7.205761   6.295807
C  -1.752635   6.587772   7.688077
H  -2.134982   6.460870   5.596051
H  -2.447766   8.061876   6.262762
H  -2.742055   6.197424   7.908014
H  -1.430043   7.119586   9.657050
H  -0.497565   8.068311   8.589343
H  -2.153441   8.311032   8.761407
H  -0.308803   8.486007   6.145830
14

O  -0.912317   4.496428   6.921724
O  0.105348   5.452209   8.676287
O  -0.455408   7.582094   5.890387
N  -1.423511   7.600094   8.731915
C  -0.761289   5.420993   7.770594
C  -1.765333   7.205755   6.295807
C  -1.752638   6.587774   7.688077
H  -2.134710   6.461019   5.596061
H  -2.448097   8.061751   6.262718
H  -2.742020   6.197728   7.907944
H  -1.429588   7.118974   9.656914
H  -0.497733   8.067830   8.590326
H  -2.153995   8.310133   8.761206
H  -0.308602   8.485518   6.145823
14

O  -0.912314   4.496432   6.921724
O  0.105342   5.452209   8.676279
O  -0.455404   7.582088   5.890392
N  -1.423513   7.600093   8.731914
C  -0.761283   5.420991   7.770594
C  -1.765333   7.205757   6.295806
C  -1.752638   6.587776   7.688082
H  -2.134633   6.461095   5.596049
H  -2.448172   8.061995   6.262690
H  -2.742060   6.197673   7.907892
H  -1.429626   7.119054   9.656702
H  -0.497740   8.068253   8.590613
H  -2.154503   8.310060   8.761702
H  -0.308652   8.484971   6.146009
